[General]
network = tictoc3.Network
sim-time-limit = 50s
